Version 4
SHEET 1 1800 3212
WIRE 752 144 416 144
WIRE 256 160 -80 160
WIRE -80 240 -80 160
WIRE 128 240 80 240
WIRE 256 240 256 160
WIRE 256 240 208 240
WIRE 416 240 416 144
WIRE 608 256 576 256
WIRE 752 256 752 144
WIRE 752 256 688 256
WIRE 640 336 640 320
WIRE 144 352 144 336
WIRE 576 352 576 256
WIRE 608 352 576 352
WIRE 80 368 80 240
WIRE 112 368 80 368
WIRE 752 368 752 256
WIRE 752 368 672 368
WIRE 256 384 256 240
WIRE 256 384 176 384
WIRE 320 384 256 384
WIRE 416 384 416 320
WIRE 416 384 384 384
WIRE 448 384 416 384
WIRE 544 384 512 384
WIRE 608 384 544 384
WIRE -192 400 -352 400
WIRE -80 400 -80 304
WIRE -80 400 -112 400
WIRE -48 400 -80 400
WIRE 48 400 32 400
WIRE 112 400 48 400
WIRE 640 416 640 400
WIRE 144 432 144 416
WIRE 544 432 544 384
WIRE 48 448 48 400
WIRE 48 528 48 512
WIRE 544 528 544 512
WIRE 576 528 576 352
WIRE -864 544 -864 528
WIRE -768 544 -768 528
WIRE 80 544 80 368
WIRE -1008 592 -1200 592
WIRE 576 624 576 608
WIRE -1344 640 -1344 608
WIRE 80 640 80 624
WIRE -768 672 -768 640
WIRE -1200 688 -1200 592
WIRE -1136 688 -1200 688
WIRE -1008 704 -1008 592
WIRE -1008 704 -1072 704
WIRE -1136 720 -1312 720
WIRE -1344 736 -1344 720
WIRE -1312 736 -1312 720
WIRE -1312 736 -1344 736
WIRE -1136 736 -1136 720
WIRE -16 736 -80 736
WIRE 256 736 48 736
WIRE -1104 752 -1104 736
WIRE 496 752 432 752
WIRE 768 752 560 752
WIRE -1344 768 -1344 736
WIRE -768 784 -768 752
WIRE 112 784 64 784
WIRE 256 784 256 736
WIRE 256 784 192 784
WIRE 640 784 576 784
WIRE 768 784 768 752
WIRE 768 784 720 784
WIRE -224 848 -256 848
WIRE -80 848 -80 736
WIRE -80 848 -144 848
WIRE -16 848 -80 848
WIRE 64 848 64 784
WIRE 64 848 48 848
WIRE 112 848 64 848
WIRE 256 864 256 784
WIRE 256 864 176 864
WIRE 288 864 256 864
WIRE 432 864 432 752
WIRE 432 864 368 864
WIRE 496 864 432 864
WIRE 576 864 576 784
WIRE 576 864 560 864
WIRE 624 864 576 864
WIRE -1344 880 -1344 848
WIRE -80 880 -80 848
WIRE 112 880 64 880
WIRE 768 880 768 784
WIRE 768 880 688 880
WIRE 432 896 432 864
WIRE 624 896 576 896
WIRE 64 928 64 880
WIRE 576 944 576 896
WIRE -80 976 -80 960
WIRE 432 992 432 976
WIRE -16 1072 -80 1072
WIRE 256 1072 48 1072
WIRE 496 1088 432 1088
WIRE 768 1088 560 1088
WIRE 112 1120 64 1120
WIRE 256 1120 256 1072
WIRE 256 1120 192 1120
WIRE 640 1120 576 1120
WIRE 768 1120 768 1088
WIRE 768 1120 720 1120
WIRE -224 1184 -256 1184
WIRE -80 1184 -80 1072
WIRE -80 1184 -144 1184
WIRE -16 1184 -80 1184
WIRE 64 1184 64 1120
WIRE 64 1184 48 1184
WIRE 112 1184 64 1184
WIRE 256 1200 256 1120
WIRE 256 1200 176 1200
WIRE 288 1200 256 1200
WIRE 432 1200 432 1088
WIRE 432 1200 368 1200
WIRE 496 1200 432 1200
WIRE 576 1200 576 1120
WIRE 576 1200 560 1200
WIRE 624 1200 576 1200
WIRE -80 1216 -80 1184
WIRE 112 1216 64 1216
WIRE 768 1216 768 1120
WIRE 768 1216 688 1216
WIRE 432 1232 432 1200
WIRE 624 1232 576 1232
WIRE 64 1264 64 1216
WIRE 576 1280 576 1232
WIRE -80 1312 -80 1296
WIRE 432 1328 432 1312
FLAG -768 544 0
FLAG -768 448 V+
FLAG -768 784 0
FLAG -1344 880 0
FLAG -1344 608 V+
FLAG -768 640 Vin
FLAG -864 448 V-
FLAG -864 544 0
FLAG 144 336 V+
FLAG 144 432 V-
FLAG -352 400 Vin
FLAG 48 528 0
FLAG 640 320 V+
FLAG 640 416 V-
FLAG 544 528 0
FLAG 80 640 0
FLAG 576 624 0
FLAG -256 848 Vin
FLAG 144 832 V+
FLAG 656 848 V+
FLAG -80 1312 0
FLAG 64 1264 0
FLAG -256 1184 Vin
FLAG 432 1328 0
FLAG 576 1280 0
FLAG 144 1168 V+
FLAG 656 1184 V+
FLAG 144 1232 V-
FLAG 656 1248 V-
FLAG -80 976 Vbias
FLAG 64 928 Vbias
FLAG 432 992 Vbias
FLAG 576 944 Vbias
FLAG 656 912 0
FLAG 144 896 0
FLAG -1104 752 0
FLAG -1104 672 V+
FLAG -1008 704 Vbias
SYMBOL voltage -768 432 R0
SYMATTR InstName V2
SYMATTR Value 5V
SYMBOL voltage -768 656 R0
WINDOW 123 24 124 Left 2
WINDOW 39 0 0 Left 0
WINDOW 3 24 44 Left 2
SYMATTR Value2 AC 0.1
SYMATTR Value SINE(2.5V 0.1 760)
SYMATTR InstName V4
SYMBOL res -1360 624 R0
SYMATTR InstName R13
SYMATTR Value 10k
SYMBOL res -1360 752 R0
SYMATTR InstName R14
SYMATTR Value 10k
SYMBOL voltage -864 432 R0
WINDOW 123 0 0 Left 0
WINDOW 39 0 0 Left 0
SYMATTR InstName V1
SYMATTR Value -5V
SYMBOL res -96 384 R90
WINDOW 0 0 56 VBottom 2
WINDOW 3 32 56 VTop 2
SYMATTR InstName R10
SYMATTR Value 2.5k
SYMBOL cap -96 240 R0
SYMATTR InstName C1
SYMATTR Value 100n
SYMBOL res 48 384 R90
WINDOW 0 0 56 VBottom 2
WINDOW 3 32 56 VTop 2
SYMATTR InstName R2
SYMATTR Value 2.5k
SYMBOL cap 32 448 R0
SYMATTR InstName C3
SYMATTR Value 100n
SYMBOL cap 512 368 R90
WINDOW 0 0 32 VBottom 2
WINDOW 3 32 32 VTop 2
SYMATTR InstName C2
SYMATTR Value 100n
SYMBOL cap 384 368 R90
WINDOW 0 0 32 VBottom 2
WINDOW 3 32 32 VTop 2
SYMATTR InstName C4
SYMATTR Value 100n
SYMBOL res 528 416 R0
SYMATTR InstName R1
SYMATTR Value 3.6k
SYMBOL res 400 224 R0
SYMATTR InstName R3
SYMATTR Value 3.6k
SYMBOL res 224 224 R90
WINDOW 0 0 56 VBottom 2
WINDOW 3 32 56 VTop 2
SYMATTR InstName R4
SYMATTR Value 500
SYMBOL res 64 528 R0
SYMATTR InstName R5
SYMATTR Value 300
SYMBOL res 560 512 R0
SYMATTR InstName R6
SYMATTR Value 300
SYMBOL res 704 240 R90
WINDOW 0 0 56 VBottom 2
WINDOW 3 32 56 VTop 2
SYMATTR InstName R7
SYMATTR Value 500
SYMBOL Opamps\\LT1490 144 320 R0
SYMATTR InstName U1
SYMBOL Opamps\\LT1490 640 304 R0
SYMATTR InstName U2
SYMBOL Opamps\\LT1490 144 800 R0
SYMATTR InstName U3
SYMBOL cap 48 832 R90
WINDOW 0 0 32 VBottom 2
WINDOW 3 32 32 VTop 2
SYMATTR InstName C5
SYMATTR Value 100n
SYMBOL cap 48 720 R90
WINDOW 0 0 32 VBottom 2
WINDOW 3 32 32 VTop 2
SYMATTR InstName C6
SYMATTR Value 100n
SYMBOL res -128 832 R90
WINDOW 0 0 56 VBottom 2
WINDOW 3 32 56 VTop 2
SYMATTR InstName R8
SYMATTR Value 4.3k
SYMBOL res -64 976 R180
WINDOW 0 36 76 Left 2
WINDOW 3 36 40 Left 2
SYMATTR InstName R9
SYMATTR Value 470
SYMBOL Opamps\\LT1490 656 816 R0
SYMATTR InstName U5
SYMBOL cap 560 848 R90
WINDOW 0 0 32 VBottom 2
WINDOW 3 32 32 VTop 2
SYMATTR InstName C7
SYMATTR Value 100n
SYMBOL cap 560 736 R90
WINDOW 0 0 32 VBottom 2
WINDOW 3 32 32 VTop 2
SYMATTR InstName C8
SYMATTR Value 100n
SYMBOL res 384 848 R90
WINDOW 0 0 56 VBottom 2
WINDOW 3 32 56 VTop 2
SYMATTR InstName R11
SYMATTR Value 3.3k
SYMBOL res 448 992 R180
WINDOW 0 36 76 Left 2
WINDOW 3 36 40 Left 2
SYMATTR InstName R12
SYMATTR Value 360
SYMBOL res 208 768 R90
WINDOW 0 0 56 VBottom 2
WINDOW 3 32 56 VTop 2
SYMATTR InstName R15
SYMATTR Value 27k
SYMBOL res 736 768 R90
WINDOW 0 0 56 VBottom 2
WINDOW 3 32 56 VTop 2
SYMATTR InstName R16
SYMATTR Value 22k
SYMBOL Opamps\\LT1490 144 1136 R0
SYMATTR InstName U4
SYMBOL cap 48 1168 R90
WINDOW 0 0 32 VBottom 2
WINDOW 3 32 32 VTop 2
SYMATTR InstName C9
SYMATTR Value 100n
SYMBOL cap 48 1056 R90
WINDOW 0 0 32 VBottom 2
WINDOW 3 32 32 VTop 2
SYMATTR InstName C10
SYMATTR Value 100n
SYMBOL res -128 1168 R90
WINDOW 0 0 56 VBottom 2
WINDOW 3 32 56 VTop 2
SYMATTR InstName R17
SYMATTR Value 3k
SYMBOL res -64 1312 R180
WINDOW 0 36 76 Left 2
WINDOW 3 36 40 Left 2
SYMATTR InstName R18
SYMATTR Value 330
SYMBOL Opamps\\LT1490 656 1152 R0
SYMATTR InstName U6
SYMBOL cap 560 1184 R90
WINDOW 0 0 32 VBottom 2
WINDOW 3 32 32 VTop 2
SYMATTR InstName C11
SYMATTR Value 100n
SYMBOL cap 560 1072 R90
WINDOW 0 0 32 VBottom 2
WINDOW 3 32 32 VTop 2
SYMATTR InstName C12
SYMATTR Value 100n
SYMBOL res 384 1184 R90
WINDOW 0 0 56 VBottom 2
WINDOW 3 32 56 VTop 2
SYMATTR InstName R19
SYMATTR Value 2.2k
SYMBOL res 448 1328 R180
WINDOW 0 36 76 Left 2
WINDOW 3 36 40 Left 2
SYMATTR InstName R20
SYMATTR Value 270
SYMBOL res 208 1104 R90
WINDOW 0 0 56 VBottom 2
WINDOW 3 32 56 VTop 2
SYMATTR InstName R21
SYMATTR Value 19k
SYMBOL res 736 1104 R90
WINDOW 0 0 56 VBottom 2
WINDOW 3 32 56 VTop 2
SYMATTR InstName R22
SYMATTR Value 15k
SYMBOL Opamps\\LT1490 -1104 640 R0
SYMATTR InstName U7
TEXT -1360 496 Left 2 !.ac oct 24 20 20000
TEXT -1360 456 Left 2 !;.tran 0 0.02 0.00 0.005
TEXT -48 1000 Left 2 ;Lowpass is 440 Hz, Highpass is 630 Hz
TEXT -48 1336 Left 2 ;Lowpass is 630 Hz, Highpass is 900 Hz (approx same Q as above)
